9
Properties=species:S:1:pos:R:3:forces:R:3 energy=-5692.67275769679 pbc="F F F"
C        0.15694200       0.32116500       0.23055900      -0.00065815       0.00892065      -0.02199682
C       -0.10564700      -0.08818800       1.60097200       0.00297605      -0.00942793       0.01498676
N        0.36715900       0.64848900      -0.86199200      -0.00099707      -0.00536646       0.01255758
H        0.81829300      -0.44759800       2.06292100      -0.00119515       0.00290278      -0.00000118
H       -0.48716900       0.76085100       2.17492700       0.00142151       0.00069919      -0.00203960
H       -0.84765500      -0.89143600       1.61268400      -0.00035054       0.00149078      -0.00264700
O        1.00130200       1.62046300      -3.60428300       0.00192632      -0.00298305      -0.00057156
H        1.91511200       1.91229400      -3.48505500       0.00108850       0.00068762      -0.00056379
H        0.76038200       1.28319600      -2.72469100      -0.00421152       0.00307643       0.00027567
